Version 4
SHEET 1 1680 804
WIRE 640 80 640 -16
WIRE 640 80 320 80
WIRE 896 80 640 80
WIRE 320 96 320 80
WIRE 896 96 896 80
WIRE 256 128 160 128
WIRE 832 128 704 128
WIRE 16 160 -64 160
WIRE 160 160 160 128
WIRE 160 160 16 160
WIRE 464 160 432 160
WIRE 1104 160 1008 160
WIRE 256 192 224 192
WIRE 832 192 768 192
WIRE 464 240 464 160
WIRE 464 240 384 240
WIRE 224 256 224 192
WIRE 304 256 224 256
WIRE 704 256 704 128
WIRE 704 256 304 256
WIRE 320 272 176 272
WIRE 480 272 320 272
WIRE 640 272 640 80
WIRE 640 272 480 272
WIRE 704 272 640 272
WIRE 896 272 704 272
WIRE 1056 272 896 272
WIRE 176 288 176 272
WIRE 480 288 480 272
WIRE 896 304 896 272
WIRE 16 320 16 160
WIRE 112 320 16 320
WIRE 384 320 384 240
WIRE 416 320 384 320
WIRE 832 336 736 336
WIRE 304 352 304 256
WIRE 304 352 288 352
WIRE 640 352 592 352
WIRE 736 352 736 336
WIRE 736 352 640 352
WIRE 1040 368 1008 368
WIRE 112 384 16 384
WIRE 416 384 384 384
WIRE 768 400 768 192
WIRE 832 400 768 400
WIRE 304 416 304 352
WIRE 304 416 272 416
WIRE 1040 416 1040 368
WIRE 1040 416 1008 416
WIRE 272 432 272 416
WIRE 272 432 208 432
WIRE 384 432 384 384
WIRE 448 432 384 432
WIRE 320 448 320 272
WIRE 768 448 768 400
WIRE 848 448 768 448
WIRE 640 464 640 352
WIRE 640 464 544 464
WIRE 704 464 704 272
WIRE 896 464 704 464
WIRE 1008 464 1008 416
WIRE 1008 464 944 464
WIRE 208 480 208 432
WIRE 256 480 208 480
WIRE 704 480 704 464
WIRE 1056 480 1056 272
WIRE 16 512 16 384
WIRE 16 512 -64 512
WIRE 160 512 16 512
WIRE 448 512 448 432
WIRE 448 512 432 512
WIRE 544 512 544 464
WIRE 640 512 544 512
WIRE 944 512 944 464
WIRE 992 512 944 512
WIRE 160 544 160 512
WIRE 256 544 160 544
WIRE 848 544 848 448
WIRE 848 544 816 544
WIRE 1216 544 1168 544
WIRE 640 576 592 576
WIRE 992 576 928 576
WIRE 848 624 848 544
WIRE 848 624 800 624
WIRE 928 624 928 576
WIRE 1008 624 928 624
WIRE 896 656 896 464
WIRE 800 688 800 624
WIRE 832 688 800 688
WIRE 1008 720 1008 624
WIRE 592 736 592 576
WIRE 592 736 -64 736
WIRE 704 736 592 736
WIRE 704 752 704 736
WIRE 832 752 704 752
FLAG -64 736 P1
IOPIN -64 736 In
FLAG -64 160 A
IOPIN -64 160 In
FLAG 640 -16 VDD
IOPIN 640 -16 In
FLAG 1216 544 S
IOPIN 1216 544 Out
FLAG 1104 160 P0
IOPIN 1104 160 Out
FLAG -64 512 B
IOPIN -64 512 In
SYMBOL nor 96 320 R0
SYMATTR InstName X1
SYMBOL nor 240 128 R0
SYMATTR InstName X2
SYMBOL nor 240 480 R0
SYMATTR InstName X3
SYMBOL nor 400 320 R0
SYMATTR InstName X4
SYMBOL nor 624 512 R0
SYMATTR InstName X5
SYMBOL nor 816 336 R0
SYMATTR InstName X6
SYMBOL nor 816 688 R0
SYMATTR InstName X7
SYMBOL nor 976 512 R0
SYMATTR InstName X8
SYMBOL nor 816 128 R0
SYMATTR InstName X9
