Version 4
SHEET 1 880 680
WIRE 160 -80 160 -112
WIRE 160 -80 112 -80
WIRE 192 -80 160 -80
WIRE 320 -80 192 -80
WIRE 112 -32 112 -80
WIRE 80 -16 32 -16
WIRE 256 0 176 0
WIRE 80 16 16 16
WIRE 192 64 192 -80
WIRE 192 64 112 64
WIRE 320 64 320 -80
WIRE 256 80 256 0
WIRE 288 80 256 80
WIRE 112 96 112 64
WIRE 16 112 16 16
WIRE 80 112 16 112
WIRE 288 112 240 112
WIRE 480 112 432 112
WIRE 240 128 240 112
WIRE 240 128 176 128
WIRE 80 144 48 144
WIRE 288 144 256 144
WIRE 192 192 192 64
WIRE 192 192 112 192
WIRE 112 208 112 192
WIRE 32 224 32 -16
WIRE 80 224 32 224
WIRE 256 240 256 144
WIRE 256 240 176 240
WIRE 48 256 48 144
WIRE 80 256 48 256
WIRE 480 256 480 112
WIRE 496 256 480 256
WIRE 16 272 16 112
WIRE 16 272 -32 272
WIRE 192 320 192 192
WIRE 192 320 176 320
WIRE 384 320 192 320
WIRE 16 368 16 272
WIRE 96 368 16 368
WIRE 176 368 176 320
WIRE 32 400 32 224
WIRE 32 400 -64 400
WIRE 96 400 96 368
WIRE 112 400 96 400
WIRE 32 416 32 400
WIRE 96 416 32 416
WIRE 272 432 256 432
WIRE 48 464 48 256
WIRE 48 464 -64 464
WIRE 96 464 96 416
WIRE 112 464 96 464
WIRE 272 464 272 432
WIRE 304 464 272 464
WIRE 576 480 480 480
WIRE 384 496 384 320
WIRE 304 528 304 464
WIRE 320 528 304 528
WIRE 480 560 480 480
WIRE 480 560 464 560
WIRE 48 592 48 464
WIRE 320 592 48 592
FLAG -64 464 P1
IOPIN -64 464 In
FLAG -32 272 A
IOPIN -32 272 In
FLAG 160 -112 VDD
IOPIN 160 -112 In
FLAG 576 480 S
IOPIN 576 480 Out
FLAG 496 256 P0
IOPIN 496 256 Out
FLAG -64 400 B
IOPIN -64 400 In
SYMBOL and 80 0 R0
SYMATTR InstName X1
SYMBOL and 80 128 R0
SYMATTR InstName X2
SYMBOL and 80 240 R0
SYMATTR InstName X3
SYMBOL xor 96 400 R0
SYMATTR InstName X5
SYMBOL xor 304 528 R0
SYMATTR InstName X6
SYMBOL triple_or 288 112 R0
SYMATTR InstName X4
