Version 4
SHEET 1 1428 852
WIRE 304 -16 -144 -16
WIRE 752 -16 752 -80
WIRE -144 32 -144 -16
WIRE 752 128 752 64
WIRE 304 144 304 -16
WIRE 496 144 304 144
WIRE -144 160 -144 112
WIRE 576 176 576 128
WIRE 608 176 576 176
WIRE 1056 208 1008 208
WIRE 1264 208 1056 208
WIRE 304 224 -144 224
WIRE 608 224 608 176
WIRE 496 240 496 144
WIRE 576 240 496 240
WIRE 1008 256 1008 208
WIRE 1008 256 640 256
WIRE 304 272 304 224
WIRE 576 272 304 272
WIRE 1056 272 1056 208
WIRE 1264 272 1264 208
WIRE 576 288 544 288
WIRE 1008 304 640 304
WIRE -144 336 -144 224
WIRE 1056 400 1056 352
WIRE 1264 400 1264 336
WIRE -144 464 -144 416
WIRE 544 512 544 288
WIRE 544 512 -144 512
WIRE 1008 512 1008 304
WIRE 1056 512 1008 512
WIRE 1264 512 1056 512
WIRE -144 544 -144 512
WIRE 1056 592 1056 512
WIRE 1264 608 1264 512
WIRE -144 672 -144 624
WIRE 1056 704 1056 672
WIRE 1264 704 1264 672
FLAG -144 160 0
FLAG -144 464 0
FLAG 752 128 0
FLAG 752 -80 VDD
FLAG 576 128 VDD
FLAG 1056 400 0
FLAG 1264 400 0
FLAG 1056 704 0
FLAG 1264 704 0
FLAG -144 672 0
SYMBOL voltage -144 16 R0
WINDOW 123 0 0 Left 0
WINDOW 39 0 0 Left 0
SYMATTR InstName P1
SYMATTR Value PULSE(0 1 1n 10p 10p 20n 40n)
SYMBOL voltage -144 320 R0
WINDOW 123 0 0 Left 0
WINDOW 39 0 0 Left 0
SYMATTR InstName A
SYMATTR Value PULSE(0 1 1n 10p 10p 40n 80n)
SYMBOL voltage 752 -32 R0
WINDOW 123 0 0 Left 0
WINDOW 39 0 0 Left 0
SYMATTR InstName VDD1
SYMATTR Value 1
SYMBOL res 1040 256 R0
SYMATTR InstName R1
SYMATTR Value 100k
SYMBOL cap 1248 272 R0
SYMATTR InstName C1
SYMATTR Value 100f
SYMBOL adder 608 272 R0
SYMATTR InstName X1
SYMBOL cap 1248 608 R0
SYMATTR InstName C2
SYMATTR Value 100f
SYMBOL res 1040 576 R0
SYMATTR InstName R2
SYMATTR Value 100k
SYMBOL voltage -144 528 R0
WINDOW 123 0 0 Left 0
WINDOW 39 0 0 Left 0
SYMATTR InstName B
SYMATTR Value PULSE(0 1 1n 10p 10p 80n 160n)
TEXT 984 -96 Left 2 !.include 90nm_bulk.txt
TEXT 992 -64 Left 2 !.tran 0 200n 0 1p
