Version 4
SHEET 1 880 788
WIRE -224 -160 -352 -160
WIRE -400 -128 -480 -128
WIRE -352 -128 -352 -160
WIRE -400 -112 -400 -128
WIRE -384 -112 -400 -112
WIRE -160 -96 -320 -96
WIRE -384 -80 -480 -80
WIRE -384 -64 -448 -64
WIRE -272 -48 -320 -48
WIRE -448 -32 -448 -64
WIRE -448 -32 -480 -32
WIRE -272 64 -272 -48
WIRE -272 64 -416 64
WIRE -224 96 -352 96
WIRE -352 112 -352 96
WIRE -416 128 -416 64
WIRE -384 128 -416 128
WIRE -416 144 -480 144
WIRE -160 144 -320 144
WIRE -416 160 -416 144
WIRE -384 160 -416 160
WIRE -384 176 -416 176
WIRE -416 192 -416 176
WIRE -416 192 -480 192
WIRE -272 192 -320 192
WIRE -272 304 -272 192
WIRE -272 304 -416 304
WIRE -224 320 -352 320
WIRE -352 336 -352 320
WIRE -416 352 -416 304
WIRE -384 352 -416 352
WIRE -416 368 -480 368
WIRE -160 368 -320 368
WIRE -416 384 -416 368
WIRE -384 384 -416 384
WIRE -384 400 -416 400
WIRE -416 416 -416 400
WIRE -416 416 -480 416
WIRE -240 416 -320 416
WIRE -240 496 -240 416
WIRE -240 496 -416 496
WIRE -224 512 -352 512
WIRE -352 528 -352 512
WIRE -432 544 -480 544
WIRE -416 544 -416 496
WIRE -384 544 -416 544
WIRE -160 560 -320 560
WIRE -432 576 -432 544
WIRE -384 576 -432 576
WIRE -384 592 -432 592
WIRE -432 608 -432 592
WIRE -432 608 -480 608
WIRE -160 608 -320 608
FLAG -480 -128 P1
IOPIN -480 -128 In
FLAG -480 -80 A0
IOPIN -480 -80 In
FLAG -480 -32 B0
IOPIN -480 -32 In
FLAG -480 144 A1
IOPIN -480 144 In
FLAG -480 192 B1
IOPIN -480 192 In
FLAG -480 368 A2
IOPIN -480 368 In
FLAG -480 416 B2
IOPIN -480 416 In
FLAG -480 544 A3
IOPIN -480 544 In
FLAG -480 608 B3
IOPIN -480 608 In
FLAG -224 96 VDD
IOPIN -224 96 In
FLAG -160 -96 S0
IOPIN -160 -96 Out
FLAG -160 144 S1
IOPIN -160 144 Out
FLAG -160 368 S2
IOPIN -160 368 Out
FLAG -160 560 S3
IOPIN -160 560 Out
FLAG -160 608 P0
IOPIN -160 608 Out
FLAG -224 512 VDD
IOPIN -224 512 In
FLAG -224 320 VDD
IOPIN -224 320 In
FLAG -224 -160 VDD
IOPIN -224 -160 In
SYMBOL adder -352 -80 R0
SYMATTR InstName X6
SYMBOL adder -352 160 R0
SYMATTR InstName X7
SYMBOL adder -352 384 R0
SYMATTR InstName X8
SYMBOL adder -352 576 R0
SYMATTR InstName X9
