Version 4
SHEET 1 1428 2432
WIRE -288 -16 -288 -32
WIRE 80 -16 80 -32
WIRE 752 -16 752 -80
WIRE -288 48 -288 -16
WIRE 80 48 80 -16
WIRE 752 128 752 64
WIRE -288 160 -288 128
WIRE 80 176 80 128
WIRE 576 176 576 128
WIRE 608 176 576 176
WIRE 608 240 608 176
WIRE -288 256 -288 224
WIRE 544 256 464 256
WIRE 816 256 672 256
WIRE 1024 256 816 256
WIRE 80 272 80 224
WIRE 544 288 464 288
WIRE 768 288 672 288
WIRE -288 304 -288 256
WIRE 80 320 80 272
WIRE 544 320 464 320
WIRE 752 320 672 320
WIRE 816 320 816 256
WIRE 1024 320 1024 256
WIRE 544 352 464 352
WIRE 736 352 672 352
WIRE 544 384 464 384
WIRE 544 416 464 416
WIRE -288 432 -288 384
WIRE 80 448 80 400
WIRE 544 448 464 448
WIRE 816 448 816 400
WIRE 1024 448 1024 384
WIRE 704 464 672 464
WIRE 544 480 464 480
WIRE 80 496 80 480
WIRE 768 496 768 288
WIRE 816 496 768 496
WIRE 1024 496 816 496
WIRE -288 512 -288 480
WIRE 544 512 464 512
WIRE 80 528 80 496
WIRE -288 544 -288 512
WIRE 816 576 816 496
WIRE 1024 592 1024 496
WIRE 80 656 80 608
WIRE -288 672 -288 624
WIRE 816 688 816 656
WIRE 1024 688 1024 656
WIRE 752 736 752 320
WIRE 816 736 752 736
WIRE 1024 736 816 736
WIRE 80 752 80 704
WIRE -288 768 -288 736
WIRE 80 784 80 752
WIRE -288 800 -288 768
WIRE 816 800 816 736
WIRE 1024 800 1024 736
WIRE 80 912 80 864
WIRE -288 928 -288 880
WIRE 816 928 816 880
WIRE 1024 928 1024 864
WIRE 736 960 736 352
WIRE 816 960 736 960
WIRE 1024 960 816 960
WIRE -16 992 -16 960
WIRE -16 1024 -16 992
WIRE 816 1024 816 960
WIRE 1024 1024 1024 960
WIRE -16 1152 -16 1104
WIRE 816 1152 816 1104
WIRE 1024 1152 1024 1088
WIRE 704 1184 704 464
WIRE 816 1184 704 1184
WIRE 1024 1184 816 1184
WIRE 816 1248 816 1184
WIRE 1024 1248 1024 1184
WIRE 816 1376 816 1328
WIRE 1024 1376 1024 1312
FLAG 80 176 0
FLAG -288 160 0
FLAG 752 128 0
FLAG 752 -80 VDD
FLAG 576 128 VDD
FLAG 816 448 0
FLAG 1024 448 0
FLAG 816 688 0
FLAG 1024 688 0
FLAG -288 432 0
FLAG 816 928 0
FLAG 1024 928 0
FLAG 816 1152 0
FLAG 1024 1152 0
FLAG 816 1376 0
FLAG 1024 1376 0
FLAG 80 448 0
FLAG -288 672 0
FLAG 80 656 0
FLAG -288 928 0
FLAG 80 912 0
FLAG -16 1152 0
FLAG -288 -16 A0
FLAG -288 256 A1
FLAG 80 272 A2
FLAG -288 512 A3
FLAG 80 -16 P1
FLAG 80 496 B0
FLAG -288 768 B1
FLAG 80 752 B2
FLAG -16 992 B3
FLAG 464 256 P1
FLAG 464 288 A0
FLAG 464 320 A1
FLAG 464 352 A2
FLAG 464 384 A3
FLAG 464 416 B0
FLAG 464 448 B1
FLAG 464 480 B2
FLAG 464 512 B3
SYMBOL voltage 80 32 R0
WINDOW 123 0 0 Left 0
WINDOW 39 0 0 Left 0
SYMATTR InstName P1
SYMATTR Value PULSE(0 1 4n 10p 10p 4n 8n)
SYMBOL voltage -288 32 R0
WINDOW 123 0 0 Left 0
WINDOW 39 0 0 Left 0
SYMATTR InstName A0
SYMATTR Value PULSE(0 1 0n 10p 10p 4n 8n)
SYMBOL voltage 752 -32 R0
WINDOW 123 0 0 Left 0
WINDOW 39 0 0 Left 0
SYMATTR InstName VDD1
SYMATTR Value 1
SYMBOL res 800 304 R0
SYMATTR InstName R1
SYMATTR Value 100k
SYMBOL cap 1008 320 R0
SYMATTR InstName C1
SYMATTR Value 100f
SYMBOL cap 1008 592 R0
SYMATTR InstName C2
SYMATTR Value 100f
SYMBOL res 800 560 R0
SYMATTR InstName R2
SYMATTR Value 100k
SYMBOL voltage -288 288 R0
WINDOW 123 0 0 Left 0
WINDOW 39 0 0 Left 0
SYMATTR InstName B
SYMATTR Value PULSE(0 1 2n 10p 10p 4n 8n)
SYMBOL res 800 784 R0
SYMATTR InstName R3
SYMATTR Value 100k
SYMBOL cap 1008 800 R0
SYMATTR InstName C3
SYMATTR Value 100f
SYMBOL res 800 1008 R0
SYMATTR InstName R4
SYMATTR Value 100k
SYMBOL cap 1008 1024 R0
SYMATTR InstName C4
SYMATTR Value 100f
SYMBOL res 800 1232 R0
SYMATTR InstName R5
SYMATTR Value 100k
SYMBOL cap 1008 1248 R0
SYMATTR InstName C5
SYMATTR Value 100f
SYMBOL voltage 80 304 R0
WINDOW 123 0 0 Left 0
WINDOW 39 0 0 Left 0
SYMATTR InstName P2
SYMATTR Value PULSE(0 1 4n 10p 10p 4n 8n)
SYMBOL voltage -288 528 R0
WINDOW 123 0 0 Left 0
WINDOW 39 0 0 Left 0
SYMATTR InstName P3
SYMATTR Value PULSE(0 1 8n 10p 10p 4n 8n)
SYMBOL voltage 80 512 R0
WINDOW 123 0 0 Left 0
WINDOW 39 0 0 Left 0
SYMATTR InstName P4
SYMATTR Value PULSE(0 1 0n 10p 10p 4n 8n)
SYMBOL voltage -288 784 R0
WINDOW 123 0 0 Left 0
WINDOW 39 0 0 Left 0
SYMATTR InstName P5
SYMATTR Value PULSE(0 1 2n 10p 10p 4n 8n)
SYMBOL voltage 80 768 R0
WINDOW 123 0 0 Left 0
WINDOW 39 0 0 Left 0
SYMATTR InstName P6
SYMATTR Value PULSE(0 1 4n 10p 10p 4n 8n)
SYMBOL voltage -16 1008 R0
WINDOW 123 0 0 Left 0
WINDOW 39 0 0 Left 0
SYMATTR InstName P7
SYMATTR Value PULSE(0 1 8n 10p 10p 4n 8n)
SYMBOL adder4 608 304 R0
SYMATTR InstName X1
TEXT 984 -96 Left 2 !.include 90nm_bulk.txt
TEXT 992 -64 Left 2 !.tran 0 10n 0 1p
