Version 4
SHEET 1 880 680
WIRE 64 -96 16 -96
WIRE 112 -96 64 -96
WIRE 416 -96 112 -96
WIRE 64 0 64 -96
WIRE 64 0 -112 0
WIRE 112 80 112 -96
WIRE 80 96 32 96
WIRE 240 96 160 96
WIRE 240 112 240 96
WIRE 336 112 240 112
WIRE 416 112 416 -96
WIRE 336 144 336 112
WIRE 352 144 336 144
WIRE 624 176 528 176
WIRE 624 192 624 176
WIRE 672 192 624 192
WIRE 352 208 336 208
WIRE -112 224 -112 0
WIRE 112 224 -112 224
WIRE 336 240 336 208
WIRE 336 240 240 240
WIRE 112 272 112 224
WIRE 80 288 32 288
WIRE 240 288 240 240
WIRE 240 288 160 288
FLAG 32 96 VIN1
IOPIN 32 96 In
FLAG 32 288 VIN2
IOPIN 32 288 In
FLAG 672 192 VOUT
IOPIN 672 192 Out
FLAG 16 -96 VDD
IOPIN 16 -96 In
SYMBOL not 96 96 R0
SYMATTR InstName X1
SYMBOL not 96 288 R0
SYMATTR InstName X2
SYMBOL nor 336 144 R0
SYMATTR InstName X3
