Version 4
SHEET 1 1332 852
WIRE 304 -16 -144 -16
WIRE 752 -16 752 -80
WIRE -144 32 -144 -16
WIRE 528 32 528 -32
WIRE 528 32 448 32
WIRE 592 32 528 32
WIRE 752 128 752 64
WIRE 592 144 592 32
WIRE 688 144 592 144
WIRE -144 160 -144 112
WIRE 448 160 448 32
WIRE 304 192 304 -16
WIRE 336 192 304 192
WIRE 384 192 336 192
WIRE 688 192 688 144
WIRE 768 192 688 192
WIRE 304 224 -144 224
WIRE 368 224 304 224
WIRE 640 224 560 224
WIRE 768 224 768 192
WIRE 368 256 368 224
WIRE 384 256 368 256
WIRE 640 256 640 224
WIRE 704 256 640 256
WIRE 1088 288 880 288
WIRE 592 320 592 144
WIRE 592 320 448 320
WIRE 704 320 640 320
WIRE -144 336 -144 224
WIRE 448 352 448 320
WIRE 336 384 336 192
WIRE 384 384 336 384
WIRE 640 416 640 320
WIRE 640 416 560 416
WIRE 304 448 304 224
WIRE 384 448 304 448
WIRE -144 464 -144 416
FLAG -144 160 0
FLAG -144 464 0
FLAG 752 128 0
FLAG 752 -80 VDD
FLAG 528 -32 VDD
SYMBOL voltage -144 16 R0
WINDOW 123 0 0 Left 0
WINDOW 39 0 0 Left 0
SYMATTR InstName A
SYMATTR Value PULSE(0 1 1n 10p 10p 2n 4n)
SYMBOL voltage -144 320 R0
WINDOW 123 0 0 Left 0
WINDOW 39 0 0 Left 0
SYMATTR InstName B
SYMATTR Value PULSE(0 1 1n 10p 10p 4n 8n)
SYMBOL voltage 752 -32 R0
WINDOW 123 0 0 Left 0
WINDOW 39 0 0 Left 0
SYMATTR InstName VDD1
SYMATTR Value 1
SYMBOL nor 688 256 R0
SYMATTR InstName X1
SYMBOL nor 368 192 R0
SYMATTR InstName X2
SYMBOL nor 368 384 R0
SYMATTR InstName X3
TEXT 984 -96 Left 2 !.include 90nm_bulk.txt
TEXT 992 -64 Left 2 !.tran 0 16n 0 1p
