Version 4
SHEET 1 880 680
WIRE 288 80 288 0
WIRE 496 80 288 80
WIRE 288 96 288 80
WIRE 288 96 256 96
WIRE 176 128 64 128
WIRE 256 128 256 96
WIRE 176 160 176 128
WIRE 192 160 176 160
WIRE 496 176 496 80
WIRE 464 192 368 192
WIRE 624 192 544 192
WIRE 192 224 176 224
WIRE 176 256 176 224
WIRE 176 256 64 256
FLAG 64 128 VIN1
IOPIN 64 128 In
FLAG 64 256 VIN2
IOPIN 64 256 In
FLAG 624 192 VOUT
IOPIN 624 192 Out
FLAG 288 0 VDD
IOPIN 288 0 In
SYMBOL nor 176 160 R0
SYMATTR InstName X1
SYMBOL not 480 192 R0
SYMATTR InstName X2
