Version 4
SHEET 1 936 680
WIRE 448 16 448 -32
WIRE 448 16 400 16
WIRE 656 16 448 16
WIRE 272 128 176 128
WIRE 272 144 272 128
WIRE 320 144 272 144
WIRE 400 144 400 16
WIRE 656 144 656 16
WIRE 576 160 496 160
WIRE 320 176 320 144
WIRE 336 176 320 176
WIRE 576 176 576 160
WIRE 592 176 576 176
WIRE 848 192 752 192
WIRE 320 208 176 208
WIRE 496 208 496 160
WIRE 496 208 480 208
WIRE 752 208 752 192
WIRE 752 208 736 208
WIRE 320 240 320 208
WIRE 336 240 320 240
WIRE 592 240 576 240
WIRE 576 320 576 240
WIRE 576 320 496 320
FLAG 176 128 VIN1
IOPIN 176 128 In
FLAG 176 208 VIN2
IOPIN 176 208 In
FLAG 496 320 VIN3
IOPIN 496 320 In
FLAG 848 192 VOUT
IOPIN 848 192 Out
FLAG 448 -32 VDD
IOPIN 448 -32 In
SYMBOL or 320 176 R0
SYMATTR InstName X1
SYMBOL or 576 176 R0
SYMATTR InstName X2
