Version 4
SHEET 1 1624 716
WIRE 592 -32 592 -112
WIRE 592 -32 352 -32
WIRE 896 -32 592 -32
WIRE 1232 -32 896 -32
WIRE 272 48 160 48
WIRE 352 48 352 -32
WIRE 272 80 272 48
WIRE 288 80 272 80
WIRE 704 112 464 112
WIRE 160 128 160 48
WIRE 160 128 64 128
WIRE 704 128 704 112
WIRE 816 128 704 128
WIRE 896 128 896 -32
WIRE 288 144 272 144
WIRE 816 160 816 128
WIRE 832 160 816 160
WIRE 160 176 160 128
WIRE 272 176 272 144
WIRE 272 176 160 176
WIRE 1072 192 1008 192
WIRE 544 224 192 224
WIRE 592 224 592 -32
WIRE 592 224 544 224
WIRE 832 224 816 224
WIRE 1232 224 1232 -32
WIRE 1312 224 1232 224
WIRE 816 256 816 224
WIRE 816 256 672 256
WIRE 464 288 352 288
WIRE 544 288 544 224
WIRE 1072 304 1072 192
WIRE 1232 304 1072 304
WIRE 1312 304 1312 224
WIRE 464 320 464 288
WIRE 480 320 464 320
WIRE 352 336 352 288
WIRE 352 336 256 336
WIRE 1232 336 1232 304
WIRE 1248 336 1232 336
WIRE 672 352 672 256
WIRE 672 352 656 352
WIRE 1536 368 1424 368
WIRE 480 384 464 384
WIRE 1248 400 1232 400
WIRE 352 416 352 336
WIRE 464 416 464 384
WIRE 464 416 352 416
WIRE 1232 432 1232 400
WIRE 1232 432 544 432
WIRE 352 464 352 416
WIRE 352 464 224 464
WIRE 192 512 192 224
WIRE 416 512 192 512
WIRE 224 544 224 464
WIRE 336 544 224 544
WIRE 416 544 416 512
WIRE 336 576 336 544
WIRE 352 576 336 576
WIRE 544 608 544 432
WIRE 544 608 528 608
WIRE 352 640 336 640
WIRE 160 672 160 176
WIRE 336 672 336 640
WIRE 336 672 160 672
FLAG 64 128 VIN1
IOPIN 64 128 In
FLAG 256 336 VIN2
IOPIN 256 336 In
FLAG 1536 368 VOUT
IOPIN 1536 368 Out
FLAG 592 -112 VDD
IOPIN 592 -112 In
SYMBOL nor 272 80 R0
SYMATTR InstName X1
SYMBOL nor 464 320 R0
SYMATTR InstName X2
SYMBOL nor 816 160 R0
SYMATTR InstName X3
SYMBOL nor 1232 336 R0
SYMATTR InstName X4
SYMBOL nor 336 576 R0
SYMATTR InstName X5
